<?xml version="1.0" encoding="UTF-8"?>

<!-- generated on 2022-09-14 14:13:08 by Eclipse SUMO netconvert Version 1.10.0
<configuration xmlns:xsi="http://www.w3.org/2001/XMLSchema-instance" xsi:noNamespaceSchemaLocation="http://sumo.dlr.de/xsd/netconvertConfiguration.xsd">

    <input>
        <sumo-net-file value="smarts/scenarios/straight/3lane_cut_in/map.net.xml"/>
    </input>

    <output>
        <output-file value="smarts/scenarios/straight/3lane_cut_in/shifted_map-AUTOGEN.net.xml"/>
    </output>

    <processing>
        <geometry.min-radius.fix.railways value="false"/>
        <geometry.max-grade.fix value="false"/>
        <offset.disable-normalization value="false"/>
        <lefthand value="false"/>
    </processing>

    <junctions>
        <no-internal-links value="true"/>
        <no-turnarounds value="true"/>
        <junctions.corner-detail value="5"/>
        <junctions.limit-turn-speed value="5.5"/>
        <rectangular-lane-cut value="false"/>
    </junctions>

    <pedestrian>
        <walkingareas value="false"/>
    </pedestrian>

    <report>
        <aggregate-warnings value="5"/>
    </report>

    <random_number>
        <seed value="1767036049"/>
    </random_number>

</configuration>
-->

<net version="1.9" junctionCornerDetail="5" limitTurnSpeed="5.50" xmlns:xsi="http://www.w3.org/2001/XMLSchema-instance" xsi:noNamespaceSchemaLocation="http://sumo.dlr.de/xsd/net_file.xsd">

    <location netOffset="0.00,-100.00" convBoundary="0.00,0.00,200.00,0.00" origBoundary="-10000000000.00,-10000000000.00,10000000000.00,10000000000.00" projParameter="!"/>

    <edge id="gneE3" from="gneJ4" to="gneJ6" priority="-1" spreadType="center">
        <lane id="gneE3_0" index="0" speed="13.89" length="200.00" shape="0.00,-3.20 200.00,-3.20"/>
        <lane id="gneE3_1" index="1" speed="13.89" length="200.00" shape="0.00,0.00 200.00,0.00"/>
        <lane id="gneE3_2" index="2" speed="13.89" length="200.00" shape="0.00,3.20 200.00,3.20"/>
    </edge>

    <junction id="gneJ4" type="dead_end" x="0.00" y="0.00" incLanes="" intLanes="" shape="0.00,4.80 0.00,-4.80"/>
    <junction id="gneJ6" type="dead_end" x="200.00" y="0.00" incLanes="gneE3_0 gneE3_1 gneE3_2" intLanes="" shape="200.00,-4.80 200.00,4.80"/>

</net>
